Circuit: * C:\Users\Usuario\Documents\UdeM\2022-1\repos-electronica\transistores\ejemplos-clase\transistor-amplificador\base_comun\bjt_cb_time.asc

Direct Newton iteration for .op point succeeded.

Date: Mon May 09 23:10:01 2022
Total elapsed time: 0.080 seconds.

tnom = 27
temp = 27
method = modified trap
totiter = 2091
traniter = 2084
tranpoints = 1042
accept = 1042
rejected = 0
matrix size = 10
fillins = 0
solver = Normal
Matrix Compiler1: 274 bytes object code size  0.2/0.2/[0.1]
Matrix Compiler2: 604 bytes object code size  0.2/0.3/[0.2]

