Circuit: * C:\Users\Usuario\Documents\UdeM\2022-1\repos-electronica\transistores\ejemplos-clase\transistor-amplificador\bjt_amp-ejemplo1.asc

Direct Newton iteration for .op point succeeded.

Date: Wed Apr 20 00:17:46 2022
Total elapsed time: 0.086 seconds.

tnom = 27
temp = 27
method = modified trap
totiter = 2088
traniter = 2082
tranpoints = 1042
accept = 1042
rejected = 0
matrix size = 8
fillins = 0
solver = Normal
Matrix Compiler1: 192 bytes object code size  0.2/0.1/[0.1]
Matrix Compiler2: 492 bytes object code size  0.2/0.2/[0.2]

