Circuit: * C:\Users\Usuario\Documents\UdeM\2022-1\repos-electronica\transistores\ejemplos-clase\transistor-amplificador\bjt_amp-ejemplo1-dc_sweep.asc


Date: Tue Apr 19 23:51:00 2022
Total elapsed time: 0.043 seconds.

tnom = 27
temp = 27
method = trap
totiter = 1990
traniter = 0
tranpoints = 0
accept = 0
rejected = 0
matrix size = 6
fillins = 0
solver = Normal
Matrix Compiler1: 146 bytes object code size  0.2/0.1/[0.1]
Matrix Compiler2: 380 bytes object code size  0.2/0.2/[0.1]

