Circuit: * C:\Users\Usuario\Documents\UdeM\2022-1\repos-electronica\transistores\ejemplos-clase\transistor-amplificador\emisor_comun\bjt_ce_DC.asc


Date: Mon May 09 20:23:20 2022
Total elapsed time: 0.341 seconds.

tnom = 27
temp = 27
method = trap
totiter = 20007
traniter = 0
tranpoints = 0
accept = 0
rejected = 0
matrix size = 11
fillins = 0
solver = Normal
Matrix Compiler1: 404 bytes object code size  0.3/0.2/[0.1]
Matrix Compiler2: 711 bytes object code size  0.3/0.3/[0.2]

