Circuit: * C:\Users\Usuario\Documents\UdeM\2022-1\repos-electronica\transistores\ejemplos-clase\transistor-amplificador\colector_comun\bjt_cc_time.asc

Direct Newton iteration for .op point succeeded.
Changing Tseed to 1e-010
Changing Tseed to 1e-012
Changing Tseed to 1e-009
Changing Tseed to 1e-013
Changing Tseed to 1e-008

Date: Tue May 10 16:42:04 2022
Total elapsed time: 0.137 seconds.

tnom = 27
temp = 27
method = modified trap
totiter = 6076
traniter = 6069
tranpoints = 3013
accept = 3008
rejected = 0
matrix size = 10
fillins = 0
solver = Normal
Matrix Compiler1: 310 bytes object code size  0.4/0.2/[0.2]
Matrix Compiler2: 632 bytes object code size  0.2/0.3/[0.2]

