Circuit: * C:\Users\Usuario\Documents\UdeM\2022-1\repos-electronica\transistores\ejemplos-clase\transistor-amplificador\colector_comun\bjt_cc_time.asc

Direct Newton iteration for .op point succeeded.
Changing Tseed to 1e-010
Changing Tseed to 1e-012
Changing Tseed to 1e-009
Heightened Def Con from 4e-009 to 4e-009

Date: Tue May 10 00:16:58 2022
Total elapsed time: 0.107 seconds.

tnom = 27
temp = 27
method = modified trap
totiter = 6358
traniter = 6351
tranpoints = 3064
accept = 3041
rejected = 21
matrix size = 10
fillins = 0
solver = Normal
Matrix Compiler1: 310 bytes object code size  0.1/0.1/[0.1]
Matrix Compiler2: 632 bytes object code size  0.1/0.2/[0.1]

