Circuit: * C:\Users\Usuario\Documents\UdeM\2022-1\repos-electronica\transistores\ejemplos-clase\transistor-amplificador\bjt_ejemplo2\bjt_amp-ejemplo2.asc

Direct Newton iteration for .op point succeeded.

Date: Tue Apr 26 23:32:19 2022
Total elapsed time: 0.076 seconds.

tnom = 27
temp = 27
method = modified trap
totiter = 2042
traniter = 2035
tranpoints = 1018
accept = 1018
rejected = 0
matrix size = 9
fillins = 0
solver = Normal
Matrix Compiler1:      17 opcodes  0.1/[0.1]/0.1
Matrix Compiler2: 573 bytes object code size  0.1/0.2/[0.1]

