Circuit: * C:\Users\Usuario\Documents\UdeM\2022-1\repos-electronica\transistores\ejemplos-clase\transistor-amplificador\emisor_comun\bjt_ce.asc

Direct Newton iteration for .op point succeeded.
Changing Tseed to 2.92969e-010

Date: Mon May 09 19:42:56 2022
Total elapsed time: 0.103 seconds.

tnom = 27
temp = 27
method = modified trap
totiter = 2176
traniter = 2169
tranpoints = 1040
accept = 1039
rejected = 0
matrix size = 11
fillins = 0
solver = Normal
Matrix Compiler1: 404 bytes object code size  0.5/0.3/[0.2]
Matrix Compiler2: 711 bytes object code size  0.3/0.4/[0.3]

